Circuit: * C:\users\user\My Documents\LTspiceXVII\Draft4.asc

Direct Newton iteration for .op point succeeded.

vout: RMS(v(n002,n003))=0.451363 FROM 0.01 TO 0.095
vin: RMS(v(n004,n005))=0.068984 FROM 0.01 TO 0.095
gain: vout/vin=6.54301


Date: Mon Dec 17 22:23:17 2018
Total elapsed time: 0.231 seconds.

tnom = 27
temp = 27
method = modified trap
totiter = 10117
traniter = 10111
tranpoints = 3710
accept = 2383
rejected = 1327
matrix size = 25
fillins = 0
solver = Normal
Matrix Compiler1: 1.40 KB object code size  1.3/0.7/[0.7]
Matrix Compiler2: 2.02 KB object code size  0.7/0.9/[0.7]

