Circuit: * C:\Users\Fabric'INSA\Documents\LTspiceXVII\Draft4.asc

Direct Newton iteration for .op point succeeded.

Date: Fri Dec 15 15:28:48 2017
Total elapsed time: 0.328 seconds.

tnom = 27
temp = 27
method = modified trap
totiter = 22251
traniter = 22234
tranpoints = 7013
accept = 4722
rejected = 2291
matrix size = 39
fillins = 4
solver = Normal
Matrix Compiler1: 1.72 KB object code size  1.5/0.6/[0.3]
Matrix Compiler2: off  [0.7]/1.0/0.8

